hawaii40/Hawaii40_20231026.EPC
title
!
comments
!
solution parameters
tap    1    tcul  enabled/disabled
phas   1    ps    enabled/disabled
area   1    area  enabled/disabled
svd    1    svd   enabled/disabled
dctap  1    dc    enabled/disabled
gcd    0    gcd   enabled/disabled
jump  0.000200    jumper threshold
toler   0.0000    newton tolerance
sbase 100.0000    system mva base
!
substation data  [   31]           no  name
      1  "ALOHA"    : 21.344246 -157.939889 0.000000  " "
      2  "FLOWER"    : 21.347927 -157.876274 0.000000  " "
      3  "WAVE"    : 21.293143 -157.848767 0.000000  " "
      4  "HONOLULU"    : 21.316548 -157.845053 0.000000  " "
      5  "SURF"    : 21.291518 -157.826869 0.000000  " "
      6  "KANEOHE"    : 21.451733 -157.824227 0.000000  " "
      7  "TURTLE"    : 21.273462 -157.822444 0.000000  " "
      8  "MAHALO"    : 21.355480 -157.821663 0.000000  " "
      9  "LYCHEE"    : 21.320210 -157.810758 0.000000  " "
     10  "COCONUT"    : 21.290612 -157.788328 0.000000  " "
     11  "KAILUA"    : 21.395084 -157.758188 0.000000  " "
     12  "PALM"    : 21.311063 -157.750269 0.000000  " "
     13  "WAIMANALO"    : 21.335013 -157.710924 0.000000  " "
     14  "VOLCANO"    : 21.294518 -157.688748 0.000000  " "
     15  "PEARL CITY"    : 21.417374 -157.936867 0.000000  " "
     16  "MILILANI"    : 21.482531 -157.934221 0.000000  " "
     17  "AIEA"    : 21.406053 -157.884952 0.000000  " "
     18  "WAIPAHU"    : 21.417469 -157.983838 0.000000  " "
     19  "KAPOLEI"    : 21.363106 -158.082206 0.000000  " "
     20  "EWA BEACH"    : 21.344756 -158.022282 0.000000  " "
     21  "KAHUKU"    : 21.658692 -157.978792 0.000000  " "
     22  "HALEIWA"    : 21.621367 -158.048011 0.000000  " "
     23  "LAIE"    : 21.618479 -157.943953 0.000000  " "
     24  "WAHIAWA"    : 21.571390 -157.979384 0.000000  " "
     25  "WAIALUA"    : 21.563640 -158.185151 0.000000  " "
     26  "HAUULA"    : 21.557750 -157.905396 0.000000  " "
     27  "WAIANAE"    : 21.468626 -158.166919 0.000000  " "
     28  "SCHOFIELD"    : 21.478500 -158.058100 0.000000  " "
     29  "KALAELOA"    : 21.303419 -158.106528 0.000000  " "
     30  "COGEN"    : 21.311667 -158.113889 0.000000  " "
     31  "KAHE"    : 21.356395 -158.128853 0.000000  " "
bus data  [37]               ty  vsched   volt     angle    ar zone  vmax   vmin   date_in date_out pid L own st  latitude  longitude island    sdmon   vmax1      vmin1      dvmax subst
      1 "ALOHA138    " 138.0000 " "  0  :  1 0.993545  0.993545  -1.119907    1    1 1.1000 0.9000 19400101 21991231   0 0   1 0   0.000000   0.000000     0 0    1.10000    0.90000    0.00000 1 "ALOHA"     1 -1 " "  0  " " 
      2 "ALOHA69     "  69.0000 " "  0  :  2 1.000000 0.991225  -3.927372    1    1 1.1000 0.9000 19400101 21991231   0 0   1 0   0.000000   0.000000     0 0    1.10000    0.90000    0.00000 1 "ALOHA"     1 -1 " "  0  " " 
      3 "FLOWER69    "  69.0000 " "  0  :  1 0.984548  0.984548  -4.731145    1    1 1.1000 0.9000 19400101 21991231   0 0   1 0   0.000000   0.000000     0 0    1.10000    0.90000    0.00000 2 "FLOWER"     1 -1 " "  0  " " 
      4 "WAVE69      "  69.0000 " "  0  :  1 0.978800  0.978800  -5.745870    1    1 1.1000 0.9000 19400101 21991231   0 0   1 0   0.000000   0.000000     0 0    1.10000    0.90000    0.00000 3 "WAVE"     1 -1 " "  0  " " 
      5 "HONOLULU138 " 138.0000 " "  0  :  1 0.988985  0.988985  -2.069792    1    1 1.1000 0.9000 19400101 21991231   0 0   1 0   0.000000   0.000000     0 0    1.10000    0.90000    0.00000 4 "HONOLULU"     1 -1 " "  0  " " 
      6 "HONOLULU69  "  69.0000 " "  0  :  1 0.981206  0.981206  -5.528160    1    1 1.1000 0.9000 19400101 21991231   0 0   1 0   0.000000   0.000000     0 0    1.10000    0.90000    0.00000 4 "HONOLULU"     1 -1 " "  0  " " 
      7 "SURF69      "  69.0000 " "  0  :  1 0.980583  0.980583  -5.671337    1    1 1.1000 0.9000 19400101 21991231   0 0   1 0   0.000000   0.000000     0 0    1.10000    0.90000    0.00000 5 "SURF"     1 -1 " "  0  " " 
      8 "KANEOHE69   "  69.0000 " "  0  :  1 0.978619  0.978619  -5.702381    1    1 1.1000 0.9000 19400101 21991231   0 0   1 0   0.000000   0.000000     0 0    1.10000    0.90000    0.00000 6 "KANEOHE"     1 -1 " "  0  " " 
      9 "TURTLE138   " 138.0000 " "  0  :  1 0.986768  0.986768  -2.548359    1    1 1.1000 0.9000 19400101 21991231   0 0   1 0   0.000000   0.000000     0 0    1.10000    0.90000    0.00000 7 "TURTLE"     1 -1 " "  0  " " 
     10 "TURTLE69    "  69.0000 " "  0  :  1 0.980941  0.980941  -5.651960    1    1 1.1000 0.9000 19400101 21991231   0 0   1 0   0.000000   0.000000     0 0    1.10000    0.90000    0.00000 7 "TURTLE"     1 -1 " "  0  " " 
     11 "MAHALO69    "  69.0000 " "  0  :  1 0.974911  0.974911  -6.522955    1    1 1.1000 0.9000 19400101 21991231   0 0   1 0   0.000000   0.000000     0 0    1.10000    0.90000    0.00000 8 "MAHALO"     1 -1 " "  0  " " 
     12 "LYCHEE69    "  69.0000 " "  0  :  1 0.977327  0.977327  -6.198354    1    1 1.1000 0.9000 19400101 21991231   0 0   1 0   0.000000   0.000000     0 0    1.10000    0.90000    0.00000 9 "LYCHEE"     1 -1 " "  0  " " 
     13 "COCONUT69   "  69.0000 " "  0  :  1 0.978953  0.978953  -6.094816    1    1 1.1000 0.9000 19400101 21991231   0 0   1 0   0.000000   0.000000     0 0    1.10000    0.90000    0.00000 10 "COCONUT"     1 -1 " "  0  " " 
     14 "KAILUA138   " 138.0000 " "  0  :  1 0.983764  0.983764  -3.136205    1    1 1.1000 0.9000 19400101 21991231   0 0   1 0   0.000000   0.000000     0 0    1.10000    0.90000    0.00000 11 "KAILUA"     1 -1 " "  0  " " 
     15 "KAILUA69    "  69.0000 " "  0  :  1 0.978631  0.978631  -6.029763    1    1 1.1000 0.9000 19400101 21991231   0 0   1 0   0.000000   0.000000     0 0    1.10000    0.90000    0.00000 11 "KAILUA"     1 -1 " "  0  " " 
     16 "PALM69      "  69.0000 " "  0  :  1 1.030000 0.982187  -6.456032    1    1 1.1000 0.9000 19400101 21991231   0 0   1 0   0.000000   0.000000     0 0    1.10000    0.90000    0.00000 12 "PALM"     1 -1 " "  0  " " 
     17 "WAIMANALO69 "  69.0000 " "  0  :  1 0.975496  0.975496  -6.981904    1    1 1.1000 0.9000 19400101 21991231   0 0   1 0   0.000000   0.000000     0 0    1.10000    0.90000    0.00000 13 "WAIMANALO"     1 -1 " "  0  " " 
     18 "VOLCANO69   "  69.0000 " "  0  :  1 0.975960  0.975960  -7.121150    1    1 1.1000 0.9000 19400101 21991231   0 0   1 0   0.000000   0.000000     0 0    1.10000    0.90000    0.00000 14 "VOLCANO"     1 -1 " "  0  " " 
     19 "PEARL CITY69"  69.0000 " "  0  :  1 0.991304  0.991304  -3.514221    1    1 1.1000 0.9000 19400101 21991231   0 0   1 0   0.000000   0.000000     0 0    1.10000    0.90000    0.00000 15 "PEARL CITY"     1 -1 " "  0  " " 
     20 "MILILANI69  "  69.0000 " "  0  :  1 0.989660  0.989660  -1.963951    1    1 1.1000 0.9000 19400101 21991231   0 0   1 0   0.000000   0.000000     0 0    1.10000    0.90000    0.00000 16 "MILILANI"     1 -1 " "  0  " " 
     21 "AIEA69      "  69.0000 " "  0  :  1 0.979942  0.979942  -5.268157    1    1 1.1000 0.9000 19400101 21991231   0 0   1 0   0.000000   0.000000     0 0    1.10000    0.90000    0.00000 17 "AIEA"     1 -1 " "  0  " " 
     22 "WAIPAHU138  " 138.0000 " "  0  :  1 0.996397  0.996397  -0.844548    1    1 1.1000 0.9000 19400101 21991231   0 0   1 0   0.000000   0.000000     0 0    1.10000    0.90000    0.00000 18 "WAIPAHU"     1 -1 " "  0  " " 
     23 "WAIPAHU69   "  69.0000 " "  0  :  0 1.000000 1.000000  -2.106015    1    1 1.1000 0.9000 19400101 21991231   0 0   1 0   0.000000   0.000000     0 0    1.10000    0.90000    0.00000 18 "WAIPAHU"     1 -1 " "  0  " " 
     24 "KAPOLEI69   "  69.0000 " "  0  :  1 0.993402  0.993402  -3.706851    1    1 1.1000 0.9000 19400101 21991231   0 0   1 0   0.000000   0.000000     0 0    1.10000    0.90000    0.00000 19 "KAPOLEI"     1 -1 " "  0  " " 
     25 "EWA BEACH138" 138.0000 " "  0  :  1 0.996614  0.996614  -0.528763    1    1 1.1000 0.9000 19400101 21991231   0 0   1 0   0.000000   0.000000     0 0    1.10000    0.90000    0.00000 20 "EWA BEACH"     1 -1 " "  0  " " 
     26 "EWA BEACH69 "  69.0000 " "  0  :  2 1.000000 0.995105  -3.596866    1    1 1.1000 0.9000 19400101 21991231   0 0   1 0   0.000000   0.000000     0 0    1.10000    0.90000    0.00000 20 "EWA BEACH"     1 -1 " "  0  " " 
     27 "KAHUKU69    "  69.0000 " "  0  :  2 1.000000 1.003416  1.362694    1    1 1.1000 0.9000 19400101 21991231   0 0   1 0   0.000000   0.000000     0 0    1.10000    0.90000    0.00000 21 "KAHUKU"     1 -1 " "  0  " " 
     28 "HALEIWA69   "  69.0000 " "  0  :  2 1.000000 1.000000  0.234055    1    1 1.1000 0.9000 19400101 21991231   0 0   1 0   0.000000   0.000000     0 0    1.10000    0.90000    0.00000 22 "HALEIWA"     1 -1 " "  0  " " 
     29 "LAIE69      "  69.0000 " "  0  :  1 0.995383  0.995383  -0.097274    1    1 1.1000 0.9000 19400101 21991231   0 0   1 0   0.000000   0.000000     0 0    1.10000    0.90000    0.00000 23 "LAIE"     1 -1 " "  0  " " 
     30 "WAHIAWA69   "  69.0000 " "  0  :  1 0.995798  0.995798  -0.422344    1    1 1.1000 0.9000 19400101 21991231   0 0   1 0   0.000000   0.000000     0 0    1.10000    0.90000    0.00000 24 "WAHIAWA"     1 -1 " "  0  " " 
     31 "WAIALUA69   "  69.0000 " "  0  :  1 0.995215  0.995215  -2.101776    1    1 1.1000 0.9000 19400101 21991231   0 0   1 0   0.000000   0.000000     0 0    1.10000    0.90000    0.00000 25 "WAIALUA"     1 -1 " "  0  " " 
     32 "HAUULA69    "  69.0000 " "  0  :  1 0.991217  0.991217  -1.321157    1    1 1.1000 0.9000 19400101 21991231   0 0   1 0   0.000000   0.000000     0 0    1.10000    0.90000    0.00000 26 "HAUULA"     1 -1 " "  0  " " 
     33 "WAIANAE69   "  69.0000 " "  0  :  2 1.000000 0.995652  -3.050368    1    1 1.1000 0.9000 19400101 21991231   0 0   1 0   0.000000   0.000000     0 0    1.10000    0.90000    0.00000 27 "WAIANAE"     1 -1 " "  0  " " 
     34 "SCHOFIELD69 "  69.0000 " "  0  :  2 1.000000 1.000000  -2.084231    1    1 1.1000 0.9000 19400101 21991231   0 0   1 0   0.000000   0.000000     0 0    1.10000    0.90000    0.00000 28 "SCHOFIELD"     1 -1 " "  0  " " 
     35 "KALAELOA138 " 138.0000 " "  0  :  2 1.000000 1.000000  0.376390    1    1 1.1000 0.9000 19400101 21991231   0 0   1 0   0.000000   0.000000     0 0    1.10000    0.90000    0.00000 29 "KALAELOA"     1 -1 " "  0  " " 
     36 "COGEN69     "  69.0000 " "  0  :  2 1.000000 0.996572  -3.565242    1    1 1.1000 0.9000 19400101 21991231   0 0   1 0   0.000000   0.000000     0 0    1.10000    0.90000    0.00000 30 "COGEN"     1 -1 " "  0  " " 
     37 "KAHE138     " 138.0000 " "  0  :  2 1.000000 1.000000  0.251430    1    1 1.1000 0.9000 19400101 21991231   0 0   1 0   0.000000   0.000000     0 0    1.10000    0.90000    0.00000 31 "KAHE"     1 -1 " "  0  " " 
branch data  [   77]                                          ck  se  ------------long_id_------------    st resist   react   charge   rate1  rate2  rate3  rate4 aloss  lngth 
      1 "ALOHA138    " 138.00       5 "HONOLULU138 " 138.00  "1 "   1 " "  :  1  0.003400  0.020913  0.008460  232.8  232.8  232.8    0.0 0.000    0.0 /
   1    1  0.000000  0.000000  1.000000 19400101 21991231   0 1  0    0.0    0.0    0.0    0.0   1 1.000   0 0.000   0 0.000   0 0.000   0 0.000   0 0.000   0 0.000   0 0.000  0 0  0  0  0  90.000   0.000000  0.000000  " " 
      1 "ALOHA138    " 138.00       5 "HONOLULU138 " 138.00  "2 "   1 " "  :  1  0.003400  0.020913  0.008460  232.8  232.8  232.8    0.0 0.000    0.0 /
   1    1  0.000000  0.000000  1.000000 19400101 21991231   0 1  0    0.0    0.0    0.0    0.0   1 1.000   0 0.000   0 0.000   0 0.000   0 0.000   0 0.000   0 0.000   0 0.000  0 0  0  0  0  90.000   0.000000  0.000000  " " 
      1 "ALOHA138    " 138.00      22 "WAIPAHU138  " 138.00  "1 "   1 " "  :  1  0.003740  0.024173  0.006050  177.8  177.8  177.8    0.0 0.000    0.0 /
   1    1  0.000000  0.000000  1.000000 19400101 21991231   0 1  0    0.0    0.0    0.0    0.0   1 1.000   0 0.000   0 0.000   0 0.000   0 0.000   0 0.000   0 0.000   0 0.000  0 0  0  0  0  90.000   0.000000  0.000000  " " 
      1 "ALOHA138    " 138.00      25 "EWA BEACH138" 138.00  "1 "   1 " "  :  1  0.002890  0.015798  0.007710  217.0  217.0  217.0    0.0 0.000    0.0 /
   1    1  0.000000  0.000000  1.000000 19400101 21991231   0 1  0    0.0    0.0    0.0    0.0   1 1.000   0 0.000   0 0.000   0 0.000   0 0.000   0 0.000   0 0.000   0 0.000  0 0  0  0  0  90.000   0.000000  0.000000  " " 
      1 "ALOHA138    " 138.00      25 "EWA BEACH138" 138.00  "2 "   1 " "  :  1  0.002890  0.015798  0.007710  217.0  217.0  217.0    0.0 0.000    0.0 /
   1    1  0.000000  0.000000  1.000000 19400101 21991231   0 1  0    0.0    0.0    0.0    0.0   1 1.000   0 0.000   0 0.000   0 0.000   0 0.000   0 0.000   0 0.000   0 0.000  0 0  0  0  0  90.000   0.000000  0.000000  " " 
      1 "ALOHA138    " 138.00      35 "KALAELOA138 " 138.00  "1 "   1 " "  :  1  0.010800  0.041922  0.012840  281.6  281.6  281.6    0.0 0.000    0.0 /
   1    1  0.000000  0.000000  1.000000 19400101 21991231   0 1  0    0.0    0.0    0.0    0.0   1 1.000   0 0.000   0 0.000   0 0.000   0 0.000   0 0.000   0 0.000   0 0.000  0 0  0  0  0  90.000   0.000000  0.000000  " " 
      1 "ALOHA138    " 138.00      35 "KALAELOA138 " 138.00  "2 "   1 " "  :  1  0.010800  0.041922  0.012840  281.6  281.6  281.6    0.0 0.000    0.0 /
   1    1  0.000000  0.000000  1.000000 19400101 21991231   0 1  0    0.0    0.0    0.0    0.0   1 1.000   0 0.000   0 0.000   0 0.000   0 0.000   0 0.000   0 0.000   0 0.000  0 0  0  0  0  90.000   0.000000  0.000000  " " 
      2 "ALOHA69     "  69.00       4 "WAVE69      "  69.00  "1 "   1 " "  :  1  0.042960  0.079357  0.002570   66.8   66.8   66.8    0.0 0.000    0.0 /
   1    1  0.000000  0.000000  1.000000 19400101 21991231   0 1  0    0.0    0.0    0.0    0.0   1 1.000   0 0.000   0 0.000   0 0.000   0 0.000   0 0.000   0 0.000   0 0.000  0 0  0  0  0  90.000   0.000000  0.000000  " " 
      2 "ALOHA69     "  69.00       6 "HONOLULU69  "  69.00  "1 "   1 " "  :  1  0.026890  0.058600  0.003120   82.0   82.0   82.0    0.0 0.000    0.0 /
   1    1  0.000000  0.000000  1.000000 19400101 21991231   0 1  0    0.0    0.0    0.0    0.0   1 1.000   0 0.000   0 0.000   0 0.000   0 0.000   0 0.000   0 0.000   0 0.000  0 0  0  0  0  90.000   0.000000  0.000000  " " 
      2 "ALOHA69     "  69.00       6 "HONOLULU69  "  69.00  "2 "   1 " "  :  1  0.026890  0.058600  0.003120   82.0   82.0   82.0    0.0 0.000    0.0 /
   1    1  0.000000  0.000000  1.000000 19400101 21991231   0 1  0    0.0    0.0    0.0    0.0   1 1.000   0 0.000   0 0.000   0 0.000   0 0.000   0 0.000   0 0.000   0 0.000  0 0  0  0  0  90.000   0.000000  0.000000  " " 
      2 "ALOHA69     "  69.00       7 "SURF69      "  69.00  "1 "   1 " "  :  1  0.027540  0.075691  0.003770   77.8   77.8   77.8    0.0 0.000    0.0 /
   1    1  0.000000  0.000000  1.000000 19400101 21991231   0 1  0    0.0    0.0    0.0    0.0   1 1.000   0 0.000   0 0.000   0 0.000   0 0.000   0 0.000   0 0.000   0 0.000  0 0  0  0  0  90.000   0.000000  0.000000  " " 
      2 "ALOHA69     "  69.00      21 "AIEA69      "  69.00  "1 "   1 " "  :  1  0.036460  0.077337  0.001730   94.8   94.8   94.8    0.0 0.000    0.0 /
   1    1  0.000000  0.000000  1.000000 19400101 21991231   0 1  0    0.0    0.0    0.0    0.0   1 1.000   0 0.000   0 0.000   0 0.000   0 0.000   0 0.000   0 0.000   0 0.000  0 0  0  0  0  90.000   0.000000  0.000000  " " 
      2 "ALOHA69     "  69.00      23 "WAIPAHU69   "  69.00  "1 "   1 " "  :  1  0.032620  0.081030  0.001800  101.3  101.3  101.3    0.0 0.000    0.0 /
   1    1  0.000000  0.000000  1.000000 19400101 21991231   0 1  0    0.0    0.0    0.0    0.0   1 1.000   0 0.000   0 0.000   0 0.000   0 0.000   0 0.000   0 0.000   0 0.000  0 0  0  0  0  90.000   0.000000  0.000000  " " 
      2 "ALOHA69     "  69.00      23 "WAIPAHU69   "  69.00  "2 "   1 " "  :  1  0.032620  0.081030  0.001800  101.3  101.3  101.3    0.0 0.000    0.0 /
   1    1  0.000000  0.000000  1.000000 19400101 21991231   0 1  0    0.0    0.0    0.0    0.0   1 1.000   0 0.000   0 0.000   0 0.000   0 0.000   0 0.000   0 0.000   0 0.000  0 0  0  0  0  90.000   0.000000  0.000000  " " 
      2 "ALOHA69     "  69.00      23 "WAIPAHU69   "  69.00  "3 "   1 " "  :  1  0.032620  0.081030  0.001800  101.3  101.3  101.3    0.0 0.000    0.0 /
   1    1  0.000000  0.000000  1.000000 19400101 21991231   0 1  0    0.0    0.0    0.0    0.0   1 1.000   0 0.000   0 0.000   0 0.000   0 0.000   0 0.000   0 0.000   0 0.000  0 0  0  0  0  90.000   0.000000  0.000000  " " 
      2 "ALOHA69     "  69.00      26 "EWA BEACH69 "  69.00  "1 "   1 " "  :  1  0.030490  0.066116  0.001860   61.7   61.7   61.7    0.0 0.000    0.0 /
   1    1  0.000000  0.000000  1.000000 19400101 21991231   0 1  0    0.0    0.0    0.0    0.0   1 1.000   0 0.000   0 0.000   0 0.000   0 0.000   0 0.000   0 0.000   0 0.000  0 0  0  0  0  90.000   0.000000  0.000000  " " 
      2 "ALOHA69     "  69.00      26 "EWA BEACH69 "  69.00  "2 "   1 " "  :  1  0.030490  0.066116  0.001860   61.7   61.7   61.7    0.0 0.000    0.0 /
   1    1  0.000000  0.000000  1.000000 19400101 21991231   0 1  0    0.0    0.0    0.0    0.0   1 1.000   0 0.000   0 0.000   0 0.000   0 0.000   0 0.000   0 0.000   0 0.000  0 0  0  0  0  90.000   0.000000  0.000000  " " 
      3 "FLOWER69    "  69.00       6 "HONOLULU69  "  69.00  "1 "   1 " "  :  1  0.014780  0.036690  0.001040   85.0   85.0   85.0    0.0 0.000    0.0 /
   1    1  0.000000  0.000000  1.000000 19400101 21991231   0 1  0    0.0    0.0    0.0    0.0   1 1.000   0 0.000   0 0.000   0 0.000   0 0.000   0 0.000   0 0.000   0 0.000  0 0  0  0  0  90.000   0.000000  0.000000  " " 
      3 "FLOWER69    "  69.00       6 "HONOLULU69  "  69.00  "2 "   1 " "  :  1  0.014780  0.036690  0.001040   85.0   85.0   85.0    0.0 0.000    0.0 /
   1    1  0.000000  0.000000  1.000000 19400101 21991231   0 1  0    0.0    0.0    0.0    0.0   1 1.000   0 0.000   0 0.000   0 0.000   0 0.000   0 0.000   0 0.000   0 0.000  0 0  0  0  0  90.000   0.000000  0.000000  " " 
      3 "FLOWER69    "  69.00      16 "PALM69      "  69.00  "1 "   1 " "  :  1  0.023830  0.063585  0.005040   82.8   82.8   82.8    0.0 0.000    0.0 /
   1    1  0.000000  0.000000  1.000000 19400101 21991231   0 1  0    0.0    0.0    0.0    0.0   1 1.000   0 0.000   0 0.000   0 0.000   0 0.000   0 0.000   0 0.000   0 0.000  0 0  0  0  0  90.000   0.000000  0.000000  " " 
      3 "FLOWER69    "  69.00      19 "PEARL CITY69"  69.00  "1 "   1 " "  :  1  0.013820  0.031229  0.005410   91.6   91.6   91.6    0.0 0.000    0.0 /
   1    1  0.000000  0.000000  1.000000 19400101 21991231   0 1  0    0.0    0.0    0.0    0.0   1 1.000   0 0.000   0 0.000   0 0.000   0 0.000   0 0.000   0 0.000   0 0.000  0 0  0  0  0  90.000   0.000000  0.000000  " " 
      3 "FLOWER69    "  69.00      19 "PEARL CITY69"  69.00  "2 "   1 " "  :  1  0.013820  0.031229  0.005410   91.6   91.6   91.6    0.0 0.000    0.0 /
   1    1  0.000000  0.000000  1.000000 19400101 21991231   0 1  0    0.0    0.0    0.0    0.0   1 1.000   0 0.000   0 0.000   0 0.000   0 0.000   0 0.000   0 0.000   0 0.000  0 0  0  0  0  90.000   0.000000  0.000000  " " 
      3 "FLOWER69    "  69.00      19 "PEARL CITY69"  69.00  "3 "   1 " "  :  1  0.013820  0.031229  0.005410   91.6   91.6   91.6    0.0 0.000    0.0 /
   1    1  0.000000  0.000000  1.000000 19400101 21991231   0 1  0    0.0    0.0    0.0    0.0   1 1.000   0 0.000   0 0.000   0 0.000   0 0.000   0 0.000   0 0.000   0 0.000  0 0  0  0  0  90.000   0.000000  0.000000  " " 
      3 "FLOWER69    "  69.00      21 "AIEA69      "  69.00  "1 "   1 " "  :  1  0.024230  0.047508  0.001520   49.0   49.0   49.0    0.0 0.000    0.0 /
   1    1  0.000000  0.000000  1.000000 19400101 21991231   0 1  0    0.0    0.0    0.0    0.0   1 1.000   0 0.000   0 0.000   0 0.000   0 0.000   0 0.000   0 0.000   0 0.000  0 0  0  0  0  90.000   0.000000  0.000000  " " 
      4 "WAVE69      "  69.00      13 "COCONUT69   "  69.00  "1 "   1 " "  :  1  0.012140  0.038486  0.001700   53.2   53.2   53.2    0.0 0.000    0.0 /
   1    1  0.000000  0.000000  1.000000 19400101 21991231   0 1  0    0.0    0.0    0.0    0.0   1 1.000   0 0.000   0 0.000   0 0.000   0 0.000   0 0.000   0 0.000   0 0.000  0 0  0  0  0  90.000   0.000000  0.000000  " " 
      5 "HONOLULU138 " 138.00       9 "TURTLE138   " 138.00  "1 "   1 " "  :  1  0.002290  0.012058  0.004090  170.7  170.7  170.7    0.0 0.000    0.0 /
   1    1  0.000000  0.000000  1.000000 19400101 21991231   0 1  0    0.0    0.0    0.0    0.0   1 1.000   0 0.000   0 0.000   0 0.000   0 0.000   0 0.000   0 0.000   0 0.000  0 0  0  0  0  90.000   0.000000  0.000000  " " 
      5 "HONOLULU138 " 138.00      14 "KAILUA138   " 138.00  "1 "   1 " "  :  1  0.005740  0.038815  0.006870  162.5  162.5  162.5    0.0 0.000    0.0 /
   1    1  0.000000  0.000000  1.000000 19400101 21991231   0 1  0    0.0    0.0    0.0    0.0   1 1.000   0 0.000   0 0.000   0 0.000   0 0.000   0 0.000   0 0.000   0 0.000  0 0  0  0  0  90.000   0.000000  0.000000  " " 
      6 "HONOLULU69  "  69.00      11 "MAHALO69    "  69.00  "1 "   1 " "  :  1  0.019800  0.042395  0.000970   89.0   89.0   89.0    0.0 0.000    0.0 /
   1    1  0.000000  0.000000  1.000000 19400101 21991231   0 1  0    0.0    0.0    0.0    0.0   1 1.000   0 0.000   0 0.000   0 0.000   0 0.000   0 0.000   0 0.000   0 0.000  0 0  0  0  0  90.000   0.000000  0.000000  " " 
      6 "HONOLULU69  "  69.00      12 "LYCHEE69    "  69.00  "1 "   1 " "  :  1  0.013640  0.033191  0.000660   58.8   58.8   58.8    0.0 0.000    0.0 /
   1    1  0.000000  0.000000  1.000000 19400101 21991231   0 1  0    0.0    0.0    0.0    0.0   1 1.000   0 0.000   0 0.000   0 0.000   0 0.000   0 0.000   0 0.000   0 0.000  0 0  0  0  0  90.000   0.000000  0.000000  " " 
      6 "HONOLULU69  "  69.00      12 "LYCHEE69    "  69.00  "2 "   1 " "  :  1  0.013640  0.033191  0.000660   58.8   58.8   58.8    0.0 0.000    0.0 /
   1    1  0.000000  0.000000  1.000000 19400101 21991231   0 1  0    0.0    0.0    0.0    0.0   1 1.000   0 0.000   0 0.000   0 0.000   0 0.000   0 0.000   0 0.000   0 0.000  0 0  0  0  0  90.000   0.000000  0.000000  " " 
      7 "SURF69      "  69.00       6 "HONOLULU69  "  69.00  "1 "   1 " "  :  1  0.004000  0.010000  0.000960   40.2   40.2   40.2    0.0 0.000    0.0 /
   1    1  0.000000  0.000000  1.000000 19400101 21991231   0 1  0    0.0    0.0    0.0    0.0   1 1.000   0 0.000   0 0.000   0 0.000   0 0.000   0 0.000   0 0.000   0 0.000  0 0  0  0  0  90.000   0.000000  0.000000  " " 
      7 "SURF69      "  69.00       6 "HONOLULU69  "  69.00  "2 "   1 " "  :  1  0.004000  0.010000  0.000960   40.2   40.2   40.2    0.0 0.000    0.0 /
   1    1  0.000000  0.000000  1.000000 19400101 21991231   0 1  0    0.0    0.0    0.0    0.0   1 1.000   0 0.000   0 0.000   0 0.000   0 0.000   0 0.000   0 0.000   0 0.000  0 0  0  0  0  90.000   0.000000  0.000000  " " 
      7 "SURF69      "  69.00       6 "HONOLULU69  "  69.00  "3 "   1 " "  :  1  0.004000  0.010000  0.000960   40.2   40.2   40.2    0.0 0.000    0.0 /
   1    1  0.000000  0.000000  1.000000 19400101 21991231   0 1  0    0.0    0.0    0.0    0.0   1 1.000   0 0.000   0 0.000   0 0.000   0 0.000   0 0.000   0 0.000   0 0.000  0 0  0  0  0  90.000   0.000000  0.000000  " " 
      7 "SURF69      "  69.00      10 "TURTLE69    "  69.00  "1 "   1 " "  :  1  0.004000  0.010000  0.000960   50.0   50.0   50.0    0.0 0.000    0.0 /
   1    1  0.000000  0.000000  1.000000 19400101 21991231   0 1  0    0.0    0.0    0.0    0.0   1 1.000   0 0.000   0 0.000   0 0.000   0 0.000   0 0.000   0 0.000   0 0.000  0 0  0  0  0  90.000   0.000000  0.000000  " " 
      7 "SURF69      "  69.00      13 "COCONUT69   "  69.00  "1 "   1 " "  :  1  0.009410  0.027706  0.000960   40.2   40.2   40.2    0.0 0.000    0.0 /
   1    1  0.000000  0.000000  1.000000 19400101 21991231   0 1  0    0.0    0.0    0.0    0.0   1 1.000   0 0.000   0 0.000   0 0.000   0 0.000   0 0.000   0 0.000   0 0.000  0 0  0  0  0  90.000   0.000000  0.000000  " " 
      7 "SURF69      "  69.00      13 "COCONUT69   "  69.00  "2 "   1 " "  :  1  0.009410  0.027706  0.000960   40.2   40.2   40.2    0.0 0.000    0.0 /
   1    1  0.000000  0.000000  1.000000 19400101 21991231   0 1  0    0.0    0.0    0.0    0.0   1 1.000   0 0.000   0 0.000   0 0.000   0 0.000   0 0.000   0 0.000   0 0.000  0 0  0  0  0  90.000   0.000000  0.000000  " " 
      7 "SURF69      "  69.00      13 "COCONUT69   "  69.00  "3 "   1 " "  :  1  0.009410  0.027706  0.000960   40.2   40.2   40.2    0.0 0.000    0.0 /
   1    1  0.000000  0.000000  1.000000 19400101 21991231   0 1  0    0.0    0.0    0.0    0.0   1 1.000   0 0.000   0 0.000   0 0.000   0 0.000   0 0.000   0 0.000   0 0.000  0 0  0  0  0  90.000   0.000000  0.000000  " " 
      8 "KANEOHE69   "  69.00      15 "KAILUA69    "  69.00  "1 "   1 " "  :  1  0.031390  0.075848  0.001970   84.9   84.9   84.9    0.0 0.000    0.0 /
   1    1  0.000000  0.000000  1.000000 19400101 21991231   0 1  0    0.0    0.0    0.0    0.0   1 1.000   0 0.000   0 0.000   0 0.000   0 0.000   0 0.000   0 0.000   0 0.000  0 0  0  0  0  90.000   0.000000  0.000000  " " 
      8 "KANEOHE69   "  69.00      19 "PEARL CITY69"  69.00  "1 "   1 " "  :  1  0.036990  0.102463  0.002460   90.0   90.0   90.0    0.0 0.000    0.0 /
   1    1  0.000000  0.000000  1.000000 19400101 21991231   0 1  0    0.0    0.0    0.0    0.0   1 1.000   0 0.000   0 0.000   0 0.000   0 0.000   0 0.000   0 0.000   0 0.000  0 0  0  0  0  90.000   0.000000  0.000000  " " 
      8 "KANEOHE69   "  69.00      19 "PEARL CITY69"  69.00  "2 "   1 " "  :  1  0.036990  0.102463  0.002460   90.0   90.0   90.0    0.0 0.000    0.0 /
   1    1  0.000000  0.000000  1.000000 19400101 21991231   0 1  0    0.0    0.0    0.0    0.0   1 1.000   0 0.000   0 0.000   0 0.000   0 0.000   0 0.000   0 0.000   0 0.000  0 0  0  0  0  90.000   0.000000  0.000000  " " 
      9 "TURTLE138   " 138.00      14 "KAILUA138   " 138.00  "1 "   1 " "  :  1  0.009330  0.037848  0.010170  169.3  169.3  169.3    0.0 0.000    0.0 /
   1    1  0.000000  0.000000  1.000000 19400101 21991231   0 1  0    0.0    0.0    0.0    0.0   1 1.000   0 0.000   0 0.000   0 0.000   0 0.000   0 0.000   0 0.000   0 0.000  0 0  0  0  0  90.000   0.000000  0.000000  " " 
     11 "MAHALO69    "  69.00      13 "COCONUT69   "  69.00  "1 "   1 " "  :  1  0.018440  0.047771  0.002240   45.3   45.3   45.3    0.0 0.000    0.0 /
   1    1  0.000000  0.000000  1.000000 19400101 21991231   0 1  0    0.0    0.0    0.0    0.0   1 1.000   0 0.000   0 0.000   0 0.000   0 0.000   0 0.000   0 0.000   0 0.000  0 0  0  0  0  90.000   0.000000  0.000000  " " 
     11 "MAHALO69    "  69.00      15 "KAILUA69    "  69.00  "1 "   1 " "  :  1  0.023280  0.069221  0.001520   48.6   48.6   48.6    0.0 0.000    0.0 /
   1    1  0.000000  0.000000  1.000000 19400101 21991231   0 1  0    0.0    0.0    0.0    0.0   1 1.000   0 0.000   0 0.000   0 0.000   0 0.000   0 0.000   0 0.000   0 0.000  0 0  0  0  0  90.000   0.000000  0.000000  " " 
     12 "LYCHEE69    "  69.00      15 "KAILUA69    "  69.00  "1 "   1 " "  :  1  0.015110  0.041464  0.004140   77.0   77.0   77.0    0.0 0.000    0.0 /
   1    1  0.000000  0.000000  1.000000 19400101 21991231   0 1  0    0.0    0.0    0.0    0.0   1 1.000   0 0.000   0 0.000   0 0.000   0 0.000   0 0.000   0 0.000   0 0.000  0 0  0  0  0  90.000   0.000000  0.000000  " " 
     12 "LYCHEE69    "  69.00      17 "WAIMANALO69 "  69.00  "1 "   1 " "  :  1  0.022780  0.065341  0.002820   49.9   49.9   49.9    0.0 0.000    0.0 /
   1    1  0.000000  0.000000  1.000000 19400101 21991231   0 1  0    0.0    0.0    0.0    0.0   1 1.000   0 0.000   0 0.000   0 0.000   0 0.000   0 0.000   0 0.000   0 0.000  0 0  0  0  0  90.000   0.000000  0.000000  " " 
     13 "COCONUT69   "  69.00      16 "PALM69      "  69.00  "1 "   1 " "  :  1  0.013090  0.032547  0.001100   52.0   52.0   52.0    0.0 0.000    0.0 /
   1    1  0.000000  0.000000  1.000000 19400101 21991231   0 1  0    0.0    0.0    0.0    0.0   1 1.000   0 0.000   0 0.000   0 0.000   0 0.000   0 0.000   0 0.000   0 0.000  0 0  0  0  0  90.000   0.000000  0.000000  " " 
     16 "PALM69      "  69.00      18 "VOLCANO69   "  69.00  "1 "   1 " "  :  1  0.015530  0.039228  0.001910   51.7   51.7   51.7    0.0 0.000    0.0 /
   1    1  0.000000  0.000000  1.000000 19400101 21991231   0 1  0    0.0    0.0    0.0    0.0   1 1.000   0 0.000   0 0.000   0 0.000   0 0.000   0 0.000   0 0.000   0 0.000  0 0  0  0  0  90.000   0.000000  0.000000  " " 
     17 "WAIMANALO69 "  69.00      18 "VOLCANO69   "  69.00  "1 "   1 " "  :  1  0.009840  0.029754  0.001450   47.9   47.9   47.9    0.0 0.000    0.0 /
   1    1  0.000000  0.000000  1.000000 19400101 21991231   0 1  0    0.0    0.0    0.0    0.0   1 1.000   0 0.000   0 0.000   0 0.000   0 0.000   0 0.000   0 0.000   0 0.000  0 0  0  0  0  90.000   0.000000  0.000000  " " 
     19 "PEARL CITY69"  69.00      23 "WAIPAHU69   "  69.00  "1 "   1 " "  :  1  0.012580  0.030449  0.001330  100.3  100.3  100.3    0.0 0.000    0.0 /
   1    1  0.000000  0.000000  1.000000 19400101 21991231   0 1  0    0.0    0.0    0.0    0.0   1 1.000   0 0.000   0 0.000   0 0.000   0 0.000   0 0.000   0 0.000   0 0.000  0 0  0  0  0  90.000   0.000000  0.000000  " " 
     19 "PEARL CITY69"  69.00      23 "WAIPAHU69   "  69.00  "2 "   1 " "  :  1  0.012580  0.030449  0.001330  100.3  100.3  100.3    0.0 0.000    0.0 /
   1    1  0.000000  0.000000  1.000000 19400101 21991231   0 1  0    0.0    0.0    0.0    0.0   1 1.000   0 0.000   0 0.000   0 0.000   0 0.000   0 0.000   0 0.000   0 0.000  0 0  0  0  0  90.000   0.000000  0.000000  " " 
     19 "PEARL CITY69"  69.00      23 "WAIPAHU69   "  69.00  "3 "   1 " "  :  1  0.012580  0.030449  0.001330  100.3  100.3  100.3    0.0 0.000    0.0 /
   1    1  0.000000  0.000000  1.000000 19400101 21991231   0 1  0    0.0    0.0    0.0    0.0   1 1.000   0 0.000   0 0.000   0 0.000   0 0.000   0 0.000   0 0.000   0 0.000  0 0  0  0  0  90.000   0.000000  0.000000  " " 
     19 "PEARL CITY69"  69.00      23 "WAIPAHU69   "  69.00  "4 "   1 " "  :  1  0.012580  0.030449  0.001330  100.3  100.3  100.3    0.0 0.000    0.0 /
   1    1  0.000000  0.000000  1.000000 19400101 21991231   0 1  0    0.0    0.0    0.0    0.0   1 1.000   0 0.000   0 0.000   0 0.000   0 0.000   0 0.000   0 0.000   0 0.000  0 0  0  0  0  90.000   0.000000  0.000000  " " 
     20 "MILILANI69  "  69.00      23 "WAIPAHU69   "  69.00  "1 "   1 " "  :  1  0.042660  0.074844  0.001790   85.8   85.8   85.8    0.0 0.000    0.0 /
   1    1  0.000000  0.000000  1.000000 19400101 21991231   0 1  0    0.0    0.0    0.0    0.0   1 1.000   0 0.000   0 0.000   0 0.000   0 0.000   0 0.000   0 0.000   0 0.000  0 0  0  0  0  90.000   0.000000  0.000000  " " 
     20 "MILILANI69  "  69.00      30 "WAHIAWA69   "  69.00  "1 "   1 " "  :  1  0.027800  0.068487  0.003000   64.4   64.4   64.4    0.0 0.000    0.0 /
   1    1  0.000000  0.000000  1.000000 19400101 21991231   0 1  0    0.0    0.0    0.0    0.0   1 1.000   0 0.000   0 0.000   0 0.000   0 0.000   0 0.000   0 0.000   0 0.000  0 0  0  0  0  90.000   0.000000  0.000000  " " 
     20 "MILILANI69  "  69.00      32 "HAUULA69    "  69.00  "1 "   1 " "  :  1  0.014940  0.039916  0.003350   52.0   52.0   52.0    0.0 0.000    0.0 /
   1    1  0.000000  0.000000  1.000000 19400101 21991231   0 1  0    0.0    0.0    0.0    0.0   1 1.000   0 0.000   0 0.000   0 0.000   0 0.000   0 0.000   0 0.000   0 0.000  0 0  0  0  0  90.000   0.000000  0.000000  " " 
     22 "WAIPAHU138  " 138.00      25 "EWA BEACH138" 138.00  "1 "   1 " "  :  1  0.002980  0.017679  0.007750  277.0  277.0  277.0    0.0 0.000    0.0 /
   1    1  0.000000  0.000000  1.000000 19400101 21991231   0 1  0    0.0    0.0    0.0    0.0   1 1.000   0 0.000   0 0.000   0 0.000   0 0.000   0 0.000   0 0.000   0 0.000  0 0  0  0  0  90.000   0.000000  0.000000  " " 
     22 "WAIPAHU138  " 138.00      37 "KAHE138     " 138.00  "1 "   1 " "  :  1  0.006820  0.040841  0.011040  292.9  292.9  292.9    0.0 0.000    0.0 /
   1    1  0.000000  0.000000  1.000000 19400101 21991231   0 1  0    0.0    0.0    0.0    0.0   1 1.000   0 0.000   0 0.000   0 0.000   0 0.000   0 0.000   0 0.000   0 0.000  0 0  0  0  0  90.000   0.000000  0.000000  " " 
     23 "WAIPAHU69   "  69.00      34 "SCHOFIELD69 "  69.00  "1 "   1 " "  :  1  0.030140  0.091720  0.001930   74.4   74.4   74.4    0.0 0.000    0.0 /
   1    1  0.000000  0.000000  1.000000 19400101 21991231   0 1  0    0.0    0.0    0.0    0.0   1 1.000   0 0.000   0 0.000   0 0.000   0 0.000   0 0.000   0 0.000   0 0.000  0 0  0  0  0  90.000   0.000000  0.000000  " " 
     23 "WAIPAHU69   "  69.00      34 "SCHOFIELD69 "  69.00  "2 "   1 " "  :  1  0.030140  0.091720  0.001930   74.4   74.4   74.4    0.0 0.000    0.0 /
   1    1  0.000000  0.000000  1.000000 19400101 21991231   0 1  0    0.0    0.0    0.0    0.0   1 1.000   0 0.000   0 0.000   0 0.000   0 0.000   0 0.000   0 0.000   0 0.000  0 0  0  0  0  90.000   0.000000  0.000000  " " 
     24 "KAPOLEI69   "  69.00      26 "EWA BEACH69 "  69.00  "1 "   1 " "  :  1  0.016450  0.053480  0.001350   65.6   65.6   65.6    0.0 0.000    0.0 /
   1    1  0.000000  0.000000  1.000000 19400101 21991231   0 1  0    0.0    0.0    0.0    0.0   1 1.000   0 0.000   0 0.000   0 0.000   0 0.000   0 0.000   0 0.000   0 0.000  0 0  0  0  0  90.000   0.000000  0.000000  " " 
     24 "KAPOLEI69   "  69.00      26 "EWA BEACH69 "  69.00  "2 "   1 " "  :  1  0.016450  0.053480  0.001350   65.6   65.6   65.6    0.0 0.000    0.0 /
   1    1  0.000000  0.000000  1.000000 19400101 21991231   0 1  0    0.0    0.0    0.0    0.0   1 1.000   0 0.000   0 0.000   0 0.000   0 0.000   0 0.000   0 0.000   0 0.000  0 0  0  0  0  90.000   0.000000  0.000000  " " 
     24 "KAPOLEI69   "  69.00      33 "WAIANAE69   "  69.00  "1 "   1 " "  :  1  0.016900  0.033191  0.011020   69.5   69.5   69.5    0.0 0.000    0.0 /
   1    1  0.000000  0.000000  1.000000 19400101 21991231   0 1  0    0.0    0.0    0.0    0.0   1 1.000   0 0.000   0 0.000   0 0.000   0 0.000   0 0.000   0 0.000   0 0.000  0 0  0  0  0  90.000   0.000000  0.000000  " " 
     24 "KAPOLEI69   "  69.00      36 "COGEN69     "  69.00  "1 "   1 " "  :  1  0.018930  0.037551  0.001940   48.7   48.7   48.7    0.0 0.000    0.0 /
   1    1  0.000000  0.000000  1.000000 19400101 21991231   0 1  0    0.0    0.0    0.0    0.0   1 1.000   0 0.000   0 0.000   0 0.000   0 0.000   0 0.000   0 0.000   0 0.000  0 0  0  0  0  90.000   0.000000  0.000000  " " 
     25 "EWA BEACH138" 138.00      35 "KALAELOA138 " 138.00  "1 "   1 " "  :  1  0.004130  0.024420  0.006850  201.4  201.4  201.4    0.0 0.000    0.0 /
   1    1  0.000000  0.000000  1.000000 19400101 21991231   0 1  0    0.0    0.0    0.0    0.0   1 1.000   0 0.000   0 0.000   0 0.000   0 0.000   0 0.000   0 0.000   0 0.000  0 0  0  0  0  90.000   0.000000  0.000000  " " 
     25 "EWA BEACH138" 138.00      35 "KALAELOA138 " 138.00  "2 "   1 " "  :  1  0.004130  0.024420  0.006850  201.4  201.4  201.4    0.0 0.000    0.0 /
   1    1  0.000000  0.000000  1.000000 19400101 21991231   0 1  0    0.0    0.0    0.0    0.0   1 1.000   0 0.000   0 0.000   0 0.000   0 0.000   0 0.000   0 0.000   0 0.000  0 0  0  0  0  90.000   0.000000  0.000000  " " 
     25 "EWA BEACH138" 138.00      37 "KAHE138     " 138.00  "1 "   1 " "  :  1  0.004890  0.026145  0.007800  224.0  224.0  224.0    0.0 0.000    0.0 /
   1    1  0.000000  0.000000  1.000000 19400101 21991231   0 1  0    0.0    0.0    0.0    0.0   1 1.000   0 0.000   0 0.000   0 0.000   0 0.000   0 0.000   0 0.000   0 0.000  0 0  0  0  0  90.000   0.000000  0.000000  " " 
     25 "EWA BEACH138" 138.00      37 "KAHE138     " 138.00  "2 "   1 " "  :  1  0.004890  0.026145  0.007800  224.0  224.0  224.0    0.0 0.000    0.0 /
   1    1  0.000000  0.000000  1.000000 19400101 21991231   0 1  0    0.0    0.0    0.0    0.0   1 1.000   0 0.000   0 0.000   0 0.000   0 0.000   0 0.000   0 0.000   0 0.000  0 0  0  0  0  90.000   0.000000  0.000000  " " 
     27 "KAHUKU69    "  69.00      29 "LAIE69      "  69.00  "1 "   1 " "  :  1  0.023880  0.042832  0.001280   67.5   67.5   67.5    0.0 0.000    0.0 /
   1    1  0.000000  0.000000  1.000000 19400101 21991231   0 1  0    0.0    0.0    0.0    0.0   1 1.000   0 0.000   0 0.000   0 0.000   0 0.000   0 0.000   0 0.000   0 0.000  0 0  0  0  0  90.000   0.000000  0.000000  " " 
     28 "HALEIWA69   "  69.00      30 "WAHIAWA69   "  69.00  "1 "   1 " "  :  1  0.011200  0.031396  0.004330   70.0   70.0   70.0    0.0 0.000    0.0 /
   1    1  0.000000  0.000000  1.000000 19400101 21991231   0 1  0    0.0    0.0    0.0    0.0   1 1.000   0 0.000   0 0.000   0 0.000   0 0.000   0 0.000   0 0.000   0 0.000  0 0  0  0  0  90.000   0.000000  0.000000  " " 
     28 "HALEIWA69   "  69.00      30 "WAHIAWA69   "  69.00  "2 "   1 " "  :  1  0.011200  0.031396  0.004330   70.0   70.0   70.0    0.0 0.000    0.0 /
   1    1  0.000000  0.000000  1.000000 19400101 21991231   0 1  0    0.0    0.0    0.0    0.0   1 1.000   0 0.000   0 0.000   0 0.000   0 0.000   0 0.000   0 0.000   0 0.000  0 0  0  0  0  90.000   0.000000  0.000000  " " 
     28 "HALEIWA69   "  69.00      31 "WAIALUA69   "  69.00  "1 "   1 " "  :  1  0.051070  0.104683  0.014350   58.3   58.3   58.3    0.0 0.000    0.0 /
   1    1  0.000000  0.000000  1.000000 19400101 21991231   0 1  0    0.0    0.0    0.0    0.0   1 1.000   0 0.000   0 0.000   0 0.000   0 0.000   0 0.000   0 0.000   0 0.000  0 0  0  0  0  90.000   0.000000  0.000000  " " 
     29 "LAIE69      "  69.00      30 "WAHIAWA69   "  69.00  "1 "   1 " "  :  1  0.014790  0.036656  0.001880   49.3   49.3   49.3    0.0 0.000    0.0 /
   1    1  0.000000  0.000000  1.000000 19400101 21991231   0 1  0    0.0    0.0    0.0    0.0   1 1.000   0 0.000   0 0.000   0 0.000   0 0.000   0 0.000   0 0.000   0 0.000  0 0  0  0  0  90.000   0.000000  0.000000  " " 
     29 "LAIE69      "  69.00      32 "HAUULA69    "  69.00  "1 "   1 " "  :  1  0.023150  0.061347  0.001730   60.0   60.0   60.0    0.0 0.000    0.0 /
   1    1  0.000000  0.000000  1.000000 19400101 21991231   0 1  0    0.0    0.0    0.0    0.0   1 1.000   0 0.000   0 0.000   0 0.000   0 0.000   0 0.000   0 0.000   0 0.000  0 0  0  0  0  90.000   0.000000  0.000000  " " 
     31 "WAIALUA69   "  69.00      33 "WAIANAE69   "  69.00  "1 "   1 " "  :  1  0.026960  0.057612  0.003330   38.0   38.0   38.0    0.0 0.000    0.0 /
   1    1  0.000000  0.000000  1.000000 19400101 21991231   0 1  0    0.0    0.0    0.0    0.0   1 1.000   0 0.000   0 0.000   0 0.000   0 0.000   0 0.000   0 0.000   0 0.000  0 0  0  0  0  90.000   0.000000  0.000000  " " 
     33 "WAIANAE69   "  69.00      34 "SCHOFIELD69 "  69.00  "1 "   1 " "  :  1  0.035280  0.083927  0.002560   84.3   84.3   84.3    0.0 0.000    0.0 /
   1    1  0.000000  0.000000  1.000000 19400101 21991231   0 1  0    0.0    0.0    0.0    0.0   1 1.000   0 0.000   0 0.000   0 0.000   0 0.000   0 0.000   0 0.000   0 0.000  0 0  0  0  0  90.000   0.000000  0.000000  " " 
     33 "WAIANAE69   "  69.00      34 "SCHOFIELD69 "  69.00  "2 "   1 " "  :  1  0.035280  0.083927  0.002560   84.3   84.3   84.3    0.0 0.000    0.0 /
   1    1  0.000000  0.000000  1.000000 19400101 21991231   0 1  0    0.0    0.0    0.0    0.0   1 1.000   0 0.000   0 0.000   0 0.000   0 0.000   0 0.000   0 0.000   0 0.000  0 0  0  0  0  90.000   0.000000  0.000000  " " 
     35 "KALAELOA138 " 138.00      37 "KAHE138     " 138.00  "1 "   1 " "  :  1  0.001520  0.008374  0.008090  297.6  297.6  297.6    0.0 0.000    0.0 /
   1    1  0.000000  0.000000  1.000000 19400101 21991231   0 1  0    0.0    0.0    0.0    0.0   1 1.000   0 0.000   0 0.000   0 0.000   0 0.000   0 0.000   0 0.000   0 0.000  0 0  0  0  0  90.000   0.000000  0.000000  " " 
transformer data  [  12]                                     ck   ------------long_id_------------     st ty --no---    reg_name          zt         int                              tert                   ar zone  tbase   ps_r    ps_x    pt_r    pt_x    ts_r    ts_x
      1 "ALOHA138    " 138.00       2 "ALOHA69     "  69.00  "1 "   " " :   1  1       0 "            "   0.00  0       0 "            "   0.00       0 "            "   0.00    1    1 100.000000 4.840000E-03 1.237660E-01 0.000000E+00 0.000000E+00 0.000000E+00 0.000000E+00 /
 138.000000 69.000000  0.000000  0.000000 0.000000E+00 0.000000E+00  123.2  123.2  123.2    0.0 0.000  1.500000  0.510000  1.500000  0.510000 -0.006250  1.000000  1.000000  1.000000  1.000000 19400101 21991231   0 1     0.0    0.0    0.0    0.0 /
   1 1.000   0 0.000   0 0.000   0 0.000   0 0.000   0 0.000   0 0.000   0 0.000  0 /
   0.000000   0.000000  0.000000  0.000000     0.0    0.0    0.0     0.0    0.0    0.0 0.000 0.000  1  1  1 0.0000 0.0000 0  0  0 0.000000 0.000000  0.000000  0.000000  " " 
      1 "ALOHA138    " 138.00       2 "ALOHA69     "  69.00  "2 "   " " :   1  1       0 "            "   0.00  0       0 "            "   0.00       0 "            "   0.00    1    1 100.000000 4.840000E-03 1.237660E-01 0.000000E+00 0.000000E+00 0.000000E+00 0.000000E+00 /
 138.000000 69.000000  0.000000  0.000000 0.000000E+00 0.000000E+00  123.2  123.2  123.2    0.0 0.000  1.500000  0.510000  1.500000  0.510000 -0.006250  1.000000  1.000000  1.000000  1.000000 19400101 21991231   0 1     0.0    0.0    0.0    0.0 /
   1 1.000   0 0.000   0 0.000   0 0.000   0 0.000   0 0.000   0 0.000   0 0.000  0 /
   0.000000   0.000000  0.000000  0.000000     0.0    0.0    0.0     0.0    0.0    0.0 0.000 0.000  1  1  1 0.0000 0.0000 0  0  0 0.000000 0.000000  0.000000  0.000000  " " 
      1 "ALOHA138    " 138.00       2 "ALOHA69     "  69.00  "3 "   " " :   1  1       0 "            "   0.00  0       0 "            "   0.00       0 "            "   0.00    1    1 100.000000 4.840000E-03 1.237660E-01 0.000000E+00 0.000000E+00 0.000000E+00 0.000000E+00 /
 138.000000 69.000000  0.000000  0.000000 0.000000E+00 0.000000E+00  123.2  123.2  123.2    0.0 0.000  1.500000  0.510000  1.500000  0.510000 -0.006250  1.000000  1.000000  1.000000  1.000000 19400101 21991231   0 1     0.0    0.0    0.0    0.0 /
   1 1.000   0 0.000   0 0.000   0 0.000   0 0.000   0 0.000   0 0.000   0 0.000  0 /
   0.000000   0.000000  0.000000  0.000000     0.0    0.0    0.0     0.0    0.0    0.0 0.000 0.000  1  1  1 0.0000 0.0000 0  0  0 0.000000 0.000000  0.000000  0.000000  " " 
      5 "HONOLULU138 " 138.00       6 "HONOLULU69  "  69.00  "1 "   " " :   1  1       0 "            "   0.00  0       0 "            "   0.00       0 "            "   0.00    1    1 100.000000 4.790000E-03 1.395590E-01 0.000000E+00 0.000000E+00 0.000000E+00 0.000000E+00 /
 138.000000 69.000000  0.000000  0.000000 0.000000E+00 0.000000E+00  198.0  198.0  198.0    0.0 0.000  1.500000  0.510000  1.500000  0.510000 -0.006250  1.000000  1.000000  1.000000  1.000000 19400101 21991231   0 1     0.0    0.0    0.0    0.0 /
   1 1.000   0 0.000   0 0.000   0 0.000   0 0.000   0 0.000   0 0.000   0 0.000  0 /
   0.000000   0.000000  0.000000  0.000000     0.0    0.0    0.0     0.0    0.0    0.0 0.000 0.000  1  1  1 0.0000 0.0000 0  0  0 0.000000 0.000000  0.000000  0.000000  " " 
      9 "TURTLE138   " 138.00      10 "TURTLE69    "  69.00  "1 "   " " :   1  1       0 "            "   0.00  0       0 "            "   0.00       0 "            "   0.00    1    1 100.000000 4.680000E-03 1.256540E-01 0.000000E+00 0.000000E+00 0.000000E+00 0.000000E+00 /
 138.000000 69.000000  0.000000  0.000000 0.000000E+00 0.000000E+00   56.2   56.2   56.2    0.0 0.000  1.500000  0.510000  1.500000  0.510000 -0.006250  1.000000  1.000000  1.000000  1.000000 19400101 21991231   0 1     0.0    0.0    0.0    0.0 /
   1 1.000   0 0.000   0 0.000   0 0.000   0 0.000   0 0.000   0 0.000   0 0.000  0 /
   0.000000   0.000000  0.000000  0.000000     0.0    0.0    0.0     0.0    0.0    0.0 0.000 0.000  1  1  1 0.0000 0.0000 0  0  0 0.000000 0.000000  0.000000  0.000000  " " 
     14 "KAILUA138   " 138.00      15 "KAILUA69    "  69.00  "1 "   " " :   1  1       0 "            "   0.00  0       0 "            "   0.00       0 "            "   0.00    1    1 100.000000 3.250000E-03 1.315220E-01 0.000000E+00 0.000000E+00 0.000000E+00 0.000000E+00 /
 138.000000 69.000000  0.000000  0.000000 0.000000E+00 0.000000E+00   85.9   85.9   85.9    0.0 0.000  1.500000  0.510000  1.500000  0.510000 -0.006250  1.000000  1.000000  1.000000  1.000000 19400101 21991231   0 1     0.0    0.0    0.0    0.0 /
   1 1.000   0 0.000   0 0.000   0 0.000   0 0.000   0 0.000   0 0.000   0 0.000  0 /
   0.000000   0.000000  0.000000  0.000000     0.0    0.0    0.0     0.0    0.0    0.0 0.000 0.000  1  1  1 0.0000 0.0000 0  0  0 0.000000 0.000000  0.000000  0.000000  " " 
     14 "KAILUA138   " 138.00      15 "KAILUA69    "  69.00  "2 "   " " :   1  1       0 "            "   0.00  0       0 "            "   0.00       0 "            "   0.00    1    1 100.000000 3.250000E-03 1.315220E-01 0.000000E+00 0.000000E+00 0.000000E+00 0.000000E+00 /
 138.000000 69.000000  0.000000  0.000000 0.000000E+00 0.000000E+00   85.9   85.9   85.9    0.0 0.000  1.500000  0.510000  1.500000  0.510000 -0.006250  1.000000  1.000000  1.000000  1.000000 19400101 21991231   0 1     0.0    0.0    0.0    0.0 /
   1 1.000   0 0.000   0 0.000   0 0.000   0 0.000   0 0.000   0 0.000   0 0.000  0 /
   0.000000   0.000000  0.000000  0.000000     0.0    0.0    0.0     0.0    0.0    0.0 0.000 0.000  1  1  1 0.0000 0.0000 0  0  0 0.000000 0.000000  0.000000  0.000000  " " 
     22 "WAIPAHU138  " 138.00      23 "WAIPAHU69   "  69.00  "1 "   " " :   1  1       0 "            "   0.00  0       0 "            "   0.00       0 "            "   0.00    1    1 100.000000 4.450000E-03 1.165800E-01 0.000000E+00 0.000000E+00 0.000000E+00 0.000000E+00 /
 138.000000 69.000000  0.000000  0.000000 0.000000E+00 0.000000E+00  149.6  149.6  149.6    0.0 0.000  1.500000  0.510000  1.500000  0.510000 -0.006250  1.000000  1.000000  1.000000  1.000000 19400101 21991231   0 1     0.0    0.0    0.0    0.0 /
   1 1.000   0 0.000   0 0.000   0 0.000   0 0.000   0 0.000   0 0.000   0 0.000  0 /
   0.000000   0.000000  0.000000  0.000000     0.0    0.0    0.0     0.0    0.0    0.0 0.000 0.000  1  1  1 0.0000 0.0000 0  0  0 0.000000 0.000000  0.000000  0.000000  " " 
     22 "WAIPAHU138  " 138.00      23 "WAIPAHU69   "  69.00  "2 "   " " :   1  1       0 "            "   0.00  0       0 "            "   0.00       0 "            "   0.00    1    1 100.000000 4.450000E-03 1.165800E-01 0.000000E+00 0.000000E+00 0.000000E+00 0.000000E+00 /
 138.000000 69.000000  0.000000  0.000000 0.000000E+00 0.000000E+00  149.6  149.6  149.6    0.0 0.000  1.500000  0.510000  1.500000  0.510000 -0.006250  1.000000  1.000000  1.000000  1.000000 19400101 21991231   0 1     0.0    0.0    0.0    0.0 /
   1 1.000   0 0.000   0 0.000   0 0.000   0 0.000   0 0.000   0 0.000   0 0.000  0 /
   0.000000   0.000000  0.000000  0.000000     0.0    0.0    0.0     0.0    0.0    0.0 0.000 0.000  1  1  1 0.0000 0.0000 0  0  0 0.000000 0.000000  0.000000  0.000000  " " 
     22 "WAIPAHU138  " 138.00      23 "WAIPAHU69   "  69.00  "3 "   " " :   1  1       0 "            "   0.00  0       0 "            "   0.00       0 "            "   0.00    1    1 100.000000 4.450000E-03 1.165800E-01 0.000000E+00 0.000000E+00 0.000000E+00 0.000000E+00 /
 138.000000 69.000000  0.000000  0.000000 0.000000E+00 0.000000E+00  149.6  149.6  149.6    0.0 0.000  1.500000  0.510000  1.500000  0.510000 -0.006250  1.000000  1.000000  1.000000  1.000000 19400101 21991231   0 1     0.0    0.0    0.0    0.0 /
   1 1.000   0 0.000   0 0.000   0 0.000   0 0.000   0 0.000   0 0.000   0 0.000  0 /
   0.000000   0.000000  0.000000  0.000000     0.0    0.0    0.0     0.0    0.0    0.0 0.000 0.000  1  1  1 0.0000 0.0000 0  0  0 0.000000 0.000000  0.000000  0.000000  " " 
     25 "EWA BEACH138" 138.00      26 "EWA BEACH69 "  69.00  "1 "   " " :   1  1       0 "            "   0.00  0       0 "            "   0.00       0 "            "   0.00    1    1 100.000000 5.320000E-03 1.472650E-01 0.000000E+00 0.000000E+00 0.000000E+00 0.000000E+00 /
 138.000000 69.000000  0.000000  0.000000 0.000000E+00 0.000000E+00  131.7  131.7  131.7    0.0 0.000  1.500000  0.510000  1.500000  0.510000 -0.006250  1.000000  1.000000  1.000000  1.000000 19400101 21991231   0 1     0.0    0.0    0.0    0.0 /
   1 1.000   0 0.000   0 0.000   0 0.000   0 0.000   0 0.000   0 0.000   0 0.000  0 /
   0.000000   0.000000  0.000000  0.000000     0.0    0.0    0.0     0.0    0.0    0.0 0.000 0.000  1  1  1 0.0000 0.0000 0  0  0 0.000000 0.000000  0.000000  0.000000  " " 
     25 "EWA BEACH138" 138.00      26 "EWA BEACH69 "  69.00  "2 "   " " :   1  1       0 "            "   0.00  0       0 "            "   0.00       0 "            "   0.00    1    1 100.000000 5.320000E-03 1.472650E-01 0.000000E+00 0.000000E+00 0.000000E+00 0.000000E+00 /
 138.000000 69.000000  0.000000  0.000000 0.000000E+00 0.000000E+00  131.7  131.7  131.7    0.0 0.000  1.500000  0.510000  1.500000  0.510000 -0.006250  1.000000  1.000000  1.000000  1.000000 19400101 21991231   0 1     0.0    0.0    0.0    0.0 /
   1 1.000   0 0.000   0 0.000   0 0.000   0 0.000   0 0.000   0 0.000   0 0.000  0 /
   0.000000   0.000000  0.000000  0.000000     0.0    0.0    0.0     0.0    0.0    0.0 0.000 0.000  1  1  1 0.0000 0.0000 0  0  0 0.000000 0.000000  0.000000  0.000000  " " 
generator data  [  45]         id   ------------long_id_------------    st ---no--     reg_name           prf  qrf  ar zone   pgen   pmax   pmin   qgen   qmax   qmin   mbase  cmp_r cmp_x gen_r gen_x           hbus                         tbus                date_in date_out pid N
      2 "ALOHA69     "  69.00 "1 "  " " :  1       2 "ALOHA69     "  69.00  1.000000  1.000000   1    1   2.500000   2.500000   1.000000  0.800000  0.800000 -0.500000   2.8000 0.000 0.000 0.000 1.000      -1 "            "   0.00      -1 "            "   0.00  19400101 21991231   0 0 /
 0.0000 0.0000 1.0000    1 1.000   0 0.000   0 0.000   0 0.000   0 0.000   0 0.000   0 0.000   0 0.000   0   0   0   0   0   0   0    0.0 0 0  1.000000    1  " "  0  0   0  50   0   0   0.000000   0   0  0.000000   0  0.000000   0.000000  " " 
      2 "ALOHA69     "  69.00 "2 "  " " :  1       2 "ALOHA69     "  69.00  1.000000  1.000000   1    1   2.500000   2.500000   1.000000  0.800000  0.800000 -0.500000   2.8000 0.000 0.000 0.000 1.000      -1 "            "   0.00      -1 "            "   0.00  19400101 21991231   0 0 /
 0.0000 0.0000 1.0000    1 1.000   0 0.000   0 0.000   0 0.000   0 0.000   0 0.000   0 0.000   0 0.000   0   0   0   0   0   0   0    0.0 0 0  1.000000    1  " "  0  0   0  50   0   0   0.000000   0   0  0.000000   0  0.000000   0.000000  " " 
      2 "ALOHA69     "  69.00 "3 "  " " :  1       2 "ALOHA69     "  69.00  1.000000  1.000000   1    1   2.500000   2.500000   1.000000  0.800000  0.800000 -0.500000   2.8000 0.000 0.000 0.000 1.000      -1 "            "   0.00      -1 "            "   0.00  19400101 21991231   0 0 /
 0.0000 0.0000 1.0000    1 1.000   0 0.000   0 0.000   0 0.000   0 0.000   0 0.000   0 0.000   0 0.000   0   0   0   0   0   0   0    0.0 0 0  1.000000    1  " "  0  0   0  50   0   0   0.000000   0   0  0.000000   0  0.000000   0.000000  " " 
      2 "ALOHA69     "  69.00 "4 "  " " :  1       2 "ALOHA69     "  69.00  1.000000  1.000000   1    1   2.500000   2.500000   1.000000  0.800000  0.800000 -0.500000   2.8000 0.000 0.000 0.000 1.000      -1 "            "   0.00      -1 "            "   0.00  19400101 21991231   0 0 /
 0.0000 0.0000 1.0000    1 1.000   0 0.000   0 0.000   0 0.000   0 0.000   0 0.000   0 0.000   0 0.000   0   0   0   0   0   0   0    0.0 0 0  1.000000    1  " "  0  0   0  50   0   0   0.000000   0   0  0.000000   0  0.000000   0.000000  " " 
     23 "WAIPAHU69   "  69.00 "1 "  " " :  1      23 "WAIPAHU69   "  69.00  1.000000  1.000000   1    1  69.274741  77.800006  20.000000  0.044080 23.300000 -14.000000  85.6000 0.000 0.000 0.000 1.000      -1 "            "   0.00      -1 "            "   0.00  19400101 21991231   0 0 /
 0.0000 0.0000 1.0000    1 1.000   0 0.000   0 0.000   0 0.000   0 0.000   0 0.000   0 0.000   0 0.000   0   0   0   0   0   0   0    0.0 0 0  1.000000    1  " "  0  0   0  20   0   0   0.000000   0   0  0.000000   0  0.000000   0.000000  " " 
     23 "WAIPAHU69   "  69.00 "10"  " " :  1      23 "WAIPAHU69   "  69.00  1.000000  1.000000   1    1  39.129937  45.899999   0.000000  0.044080 13.800000 -8.300000  50.5000 0.000 0.000 0.000 1.000      -1 "            "   0.00      -1 "            "   0.00  19400101 21991231   0 0 /
 0.0000 0.0000 1.0000    1 1.000   0 0.000   0 0.000   0 0.000   0 0.000   0 0.000   0 0.000   0 0.000   0   0   0   0   0   0   0    0.0 0 0  1.000000    1  " "  0  0   0  70   0   0   0.000000   0   0  0.000000   0  0.000000   0.000000  " " 
     23 "WAIPAHU69   "  69.00 "2 "  " " :  1      23 "WAIPAHU69   "  69.00  1.000000  1.000000   1    1  69.274741  77.800006  20.000000  0.044080 23.300000 -14.000000  85.6000 0.000 0.000 0.000 1.000      -1 "            "   0.00      -1 "            "   0.00  19400101 21991231   0 0 /
 0.0000 0.0000 1.0000    1 1.000   0 0.000   0 0.000   0 0.000   0 0.000   0 0.000   0 0.000   0 0.000   0   0   0   0   0   0   0    0.0 0 0  1.000000    1  " "  0  0   0  20   0   0   0.000000   0   0  0.000000   0  0.000000   0.000000  " " 
     23 "WAIPAHU69   "  69.00 "3 "  " " :  1      23 "WAIPAHU69   "  69.00  1.000000  1.000000   1    1  47.637367  51.899999  23.000000  0.044080 15.600000 -9.400000  57.1000 0.000 0.000 0.000 1.000      -1 "            "   0.00      -1 "            "   0.00  19400101 21991231   0 0 /
 0.0000 0.0000 1.0000    1 1.000   0 0.000   0 0.000   0 0.000   0 0.000   0 0.000   0 0.000   0 0.000   0   0   0   0   0   0   0    0.0 0 0  1.000000    1  " "  0  0   0  20   0   0   0.000000   0   0  0.000000   0  0.000000   0.000000  " " 
     23 "WAIPAHU69   "  69.00 "4 "  " " :  1      23 "WAIPAHU69   "  69.00  1.000000  1.000000   1    1  47.109631  51.800001  20.000000  0.044080 15.500000 -9.300000  57.0000 0.000 0.000 0.000 1.000      -1 "            "   0.00      -1 "            "   0.00  19400101 21991231   0 0 /
 0.0000 0.0000 1.0000    1 1.000   0 0.000   0 0.000   0 0.000   0 0.000   0 0.000   0 0.000   0 0.000   0   0   0   0   0   0   0    0.0 0 0  1.000000    1  " "  0  0   0  20   0   0   0.000000   0   0  0.000000   0  0.000000   0.000000  " " 
     23 "WAIPAHU69   "  69.00 "5 "  " " :  1      23 "WAIPAHU69   "  69.00  1.000000  1.000000   1    1  44.533187  51.200002   6.000000  0.044080 15.400000 -9.200000  56.3000 0.000 0.000 0.000 1.000      -1 "            "   0.00      -1 "            "   0.00  19400101 21991231   0 0 /
 0.0000 0.0000 1.0000    1 1.000   0 0.000   0 0.000   0 0.000   0 0.000   0 0.000   0 0.000   0 0.000   0   0   0   0   0   0   0    0.0 0 0  1.000000    1  " "  0  0   0  20   0   0   0.000000   0   0  0.000000   0  0.000000   0.000000  " " 
     23 "WAIPAHU69   "  69.00 "6 "  " " :  1      23 "WAIPAHU69   "  69.00  1.000000  1.000000   1    1  44.533187  51.200002   6.000000  0.044080 15.400000 -9.200000  56.3000 0.000 0.000 0.000 1.000      -1 "            "   0.00      -1 "            "   0.00  19400101 21991231   0 0 /
 0.0000 0.0000 1.0000    1 1.000   0 0.000   0 0.000   0 0.000   0 0.000   0 0.000   0 0.000   0 0.000   0   0   0   0   0   0   0    0.0 0 0  1.000000    1  " "  0  0   0  20   0   0   0.000000   0   0  0.000000   0  0.000000   0.000000  " " 
     23 "WAIPAHU69   "  69.00 "7 "  " " :  1      23 "WAIPAHU69   "  69.00  1.000000  1.000000   1    1  43.614364  47.700000  20.000000  0.044080 14.300001 -8.600000  52.5000 0.000 0.000 0.000 1.000      -1 "            "   0.00      -1 "            "   0.00  19400101 21991231   0 0 /
 0.0000 0.0000 1.0000    1 1.000   0 0.000   0 0.000   0 0.000   0 0.000   0 0.000   0 0.000   0 0.000   0   0   0   0   0   0   0    0.0 0 0  1.000000    1  " "  0  0   0  20   0   0   0.000000   0   0  0.000000   0  0.000000   0.000000  " " 
     23 "WAIPAHU69   "  69.00 "8 "  " " :  1      23 "WAIPAHU69   "  69.00  1.000000  1.000000   1    1  43.188113  47.200000  20.000000  0.044080 14.200000 -8.500000  51.9000 0.000 0.000 0.000 1.000      -1 "            "   0.00      -1 "            "   0.00  19400101 21991231   0 0 /
 0.0000 0.0000 1.0000    1 1.000   0 0.000   0 0.000   0 0.000   0 0.000   0 0.000   0 0.000   0 0.000   0   0   0   0   0   0   0    0.0 0 0  1.000000    1  " "  0  0   0  20   0   0   0.000000   0   0  0.000000   0  0.000000   0.000000  " " 
     23 "WAIPAHU69   "  69.00 "9 "  " " :  1      23 "WAIPAHU69   "  69.00  1.000000  1.000000   1    1  12.531811  14.700000   0.000000  0.044080  4.400000 -2.600000  16.2000 0.000 0.000 0.000 1.000      -1 "            "   0.00      -1 "            "   0.00  19400101 21991231   0 0 /
 0.0000 0.0000 1.0000    1 1.000   0 0.000   0 0.000   0 0.000   0 0.000   0 0.000   0 0.000   0 0.000   0   0   0   0   0   0   0    0.0 0 0  1.000000    1  " "  0  0   0  70   0   0   0.000000   0   0  0.000000   0  0.000000   0.000000  " " 
     26 "EWA BEACH69 "  69.00 "1 "  " " :  1      26 "EWA BEACH69 "  69.00  1.000000  1.000000   1    1  20.000000  20.000000   0.000000  6.000000  6.000000 -3.600000  22.0000 0.000 0.000 0.000 1.000      -1 "            "   0.00      -1 "            "   0.00  19400101 21991231   0 0 /
 0.0000 0.0000 1.0000    1 1.000   0 0.000   0 0.000   0 0.000   0 0.000   0 0.000   0 0.000   0 0.000   0   0   0   0   0   0   0    0.0 0 0  1.000000    1  " "  0  0   0  70   0   0   0.000000   0   0  0.000000   0  0.000000   0.000000  " " 
     26 "EWA BEACH69 "  69.00 "2 "  " " :  1      26 "EWA BEACH69 "  69.00  1.000000  1.000000   1    1  10.200000  10.200000   0.000000  3.100000  3.100000 -1.900000  11.2000 0.000 0.000 0.000 1.000      -1 "            "   0.00      -1 "            "   0.00  19400101 21991231   0 0 /
 0.0000 0.0000 1.0000    1 1.000   0 0.000   0 0.000   0 0.000   0 0.000   0 0.000   0 0.000   0 0.000   0   0   0   0   0   0   0    0.0 0 0  1.000000    1  " "  0  0   0  70   0   0   0.000000   0   0  0.000000   0  0.000000   0.000000  " " 
     27 "KAHUKU69    "  69.00 "1 "  " " :  1      27 "KAHUKU69    "  69.00  1.000000  1.000000   1    1  30.000001  30.000001   0.000000 -5.400000  9.000000 -5.400000  33.0000 0.000 0.000 0.000 1.000      -1 "            "   0.00      -1 "            "   0.00  19400101 21991231   0 0 /
 0.0000 0.0000 1.0000    1 1.000   0 0.000   0 0.000   0 0.000   0 0.000   0 0.000   0 0.000   0 0.000   0   0   0   0   0   0   0    0.0 0 0  1.000000    1  " "  0  0   0  71   0   0   0.000000   0   0  0.000000   0  0.000000   0.000000  " " 
     27 "KAHUKU69    "  69.00 "2 "  " " :  1      27 "KAHUKU69    "  69.00  1.000000  1.000000   1    1  27.599999  27.599999   1.000000 -5.000000  8.300000 -5.000000  30.4000 0.000 0.000 0.000 1.000      -1 "            "   0.00      -1 "            "   0.00  19400101 21991231   0 0 /
 0.0000 0.0000 1.0000    1 1.000   0 0.000   0 0.000   0 0.000   0 0.000   0 0.000   0 0.000   0 0.000   0   0   0   2   0   0   0    0.0 0 0  1.000000    1  " "  0  0   0  71   0   0   0.000000   0   0  0.000000   0  0.000000   0.000000  " " 
     28 "HALEIWA69   "  69.00 "1 "  " " :  1      28 "HALEIWA69   "  69.00  1.000000  1.000000   1    1  46.299988  49.000001   0.000000 -5.486748 14.700000 -8.800000  53.9000 0.000 0.000 0.000 1.000      -1 "            "   0.00      -1 "            "   0.00  19400101 21991231   0 0 /
...